5
 energy: -4.175191666762 gnorm: 0.000169407833 xtb: 6.4.1 (afa7bdf)
C         4.29252768771240    3.65980060222868   -0.00355361923948
H         4.65262687750855    2.63903501276393   -0.00110556800938
H         4.65356186141925    4.17038033968926    0.87997997280368
H         4.65027635684256    4.16573376009742   -0.88321534948513
H         3.21010721651724    3.65905028522072   -0.00110543606968
