!OPTTS xtb2
*xyz 0 1
I    1.10901726  -0.19335423   0.43405561
C    0.72782145   0.22620904   2.54427883
C    1.78165416   0.57084336   3.37528522
C   -0.55347656   0.12580066   3.06245690
C    1.55284367   0.83215698   4.71589954
H    2.77870673   0.63423319   2.96375386
C   -0.78396956   0.39081899   4.40108880
H   -1.37352562  -0.15486462   2.41581319
C    0.26923665   0.74600015   5.22813428
H    2.37601979   1.10486453   5.35948677
H   -1.78504431   0.31601035   4.79966111
H    0.08886994   0.95226375   6.27260923
C   -0.59306126   0.98913483   0.00861014
C   -1.57195748   0.49812106  -0.83169508
C   -0.69700795   2.23741286   0.59128724
C   -2.68431992   1.28016266  -1.09393056
H   -1.45995895  -0.47292459  -1.28796193
C   -1.81277778   3.01199462   0.32206765
H    0.08019116   2.59983331   1.24733057
C   -2.80531917   2.53412096  -0.51785052
H   -3.45635192   0.90621102  -1.74945509
H   -1.90159413   3.99192756   0.76654237
H   -3.67314773   3.14167986  -0.72637934
O    1.13663322  -0.13950208  -1.75954582
C    1.17857756  -1.16183062  -2.60301970
C    1.21633111  -2.49355782  -2.18497126
C    1.16240995  -0.89641187  -3.97777382
C    1.23938569  -3.52139734  -3.10672497
H    1.23351304  -2.70312559  -1.12288345
C    1.18428978  -1.93102239  -4.88982335
H    1.13185700   0.13299650  -4.30248576
C    1.22230239  -3.24891911  -4.46372085
H    1.27039515  -4.54519154  -2.76054504
H    1.17148952  -1.70600352  -5.94716446
H    1.23996698  -4.05469094  -5.18243030
*
%pal
nprocs 4
end