10
 energy: -16.103595141368 gnorm: 0.000361823169 xtb: 6.4.1 (afa7bdf)
C        -1.56044714812024    0.24326429389856   -0.23978586687757
C        -0.38515127062167    0.16739093088618   -0.82896496486736
Cl        2.39763694432846   -0.63789959128634    1.29502680598361
H         0.67615576700141   -0.24336429460953    2.40803065885320
H        -1.66324146165680    0.06487769227279    0.81781061126855
H        -2.46932798142735    0.48375944993035   -0.77725407030916
H         0.50770807967992   -0.07667378016359   -0.27486945865099
H        -0.26407493442788    0.34197083671780   -1.88927905195400
O        -0.08222897910449    0.21589830261166    2.83296951574403
H         0.02325098433713    1.11672615975587    2.51922582080154
