  17
        -16.82912237
 C         -2.5174277293        0.3553629695        0.0005607305
 H         -2.5217443860        0.9920631059       -0.8806580122
 H         -2.5218461335        0.9886444211        0.8842554511
 H         -3.4263792436       -0.2418498060       -0.0006736014
 C         -1.2738357990       -0.5477871536       -0.0011383739
 H         -1.2825214298       -1.1885635412        0.8816029180
 H         -1.2829835676       -1.1858936641       -0.8858198673
 C         -0.0032716619        0.3180793700       -0.0000922578
 H         -0.0119298819        0.9620108104        0.8819329459
 H         -0.0102886895        0.9616072872       -0.8824144379
 C          1.2705092189       -0.5232569063        0.0011718532
 H          1.2761274583       -1.1703385369       -0.8791489379
 H          1.2762396859       -1.1672636271        0.8837406063
 C          2.5235316779        0.3440180225       -0.0005104709
 H          2.5461504158        0.9829035640        0.8798308496
 H          3.4185571394       -0.2739246243        0.0010284277
 H          2.5465090556        0.9791538674       -0.8835748224
  17
        -16.82826437
 C         -2.4159322255        0.2769699517        0.1029121453
 H         -2.7882781043       -0.2951214539       -0.7434460523
 H         -2.4144666314        1.3303169048       -0.1665638434
 H         -3.0953576818        0.1359522749        0.9404006955
 C         -0.9958129144       -0.1792784453        0.4737467875
 H         -0.6484216431        0.3899786403        1.3353929371
 H         -1.0081335549       -1.2368108636        0.7417840761
 C         -0.0523747805        0.0384884637       -0.7208905582
 H         -0.0107473549        1.1049727455       -0.9523784177
 H         -0.4720821648       -0.4740178991       -1.5896138152
 C          1.3646806361       -0.4824016672       -0.4810365271
 H          1.9198998047       -0.4264961769       -1.4207934730
 H          1.3169416450       -1.5341208956       -0.1889263773
 C          2.1210969346        0.3043578992        0.5831734743
 H          3.1452338098       -0.0539872038        0.6612774883
 H          2.1468937976        1.3616517993        0.3276969013
 H          1.6504269592        0.1965670142        1.5568061346
  17
        -16.82796204
 C         -2.0916811993        0.3699876196       -0.5561282948
 H         -1.5935729032        0.3603113376       -1.5208537582
 H         -2.1058430599        1.3897682363       -0.1798183700
 H         -3.1196450815        0.0444412267       -0.7032998438
 C         -1.3721859382       -0.5525558267        0.4400297061
 H         -1.9367063790       -0.5862314119        1.3727516800
 H         -1.3130407903       -1.5640468865        0.0372630563
 C          0.0407224176       -0.0151564487        0.7216322918
 H          0.4646721038       -0.5661803032        1.5661174460
 H         -0.0298439919        1.0335907301        1.0171490895
 C          0.9932295941       -0.1473993050       -0.4641482721
 H          0.6377428679        0.4599906297       -1.2976894095
 H          1.0139266608       -1.1887569790       -0.7943303137
 C          2.4051637923        0.2946395435       -0.0979200525
 H          2.7990058015       -0.3145810126        0.7130592878
 H          3.0709957657        0.1994787732       -0.9527380756
 H          2.4072671031        1.3338312314        0.2244185187
  17
        -16.82700049
 C         -1.8883328401        0.6798669806       -0.2598046277
 H         -1.2555066939        1.4932709966       -0.6018021016
 H         -2.7356821719        1.1119890944        0.2691523310
 H         -2.2636208142        0.1407186398       -1.1260639823
 C         -1.1083988847       -0.2717519965        0.6605598289
 H         -0.6743168048        0.2812052381        1.4920727526
 H         -1.7906230760       -1.0185742121        1.0692922472
 C         -0.0122122289       -0.9919013743       -0.1422029039
 H         -0.4837075189       -1.5075837416       -0.9819209368
 H          0.4442250710       -1.7544018051        0.4957520338
 C          1.0984655225       -0.0896306608       -0.6809891634
 H          0.6767725123        0.6669578384       -1.3441030350
 H          1.7709768832       -0.7073294836       -1.2819382731
 C          1.9077826332        0.5903353238        0.4171380563
 H          2.2998035256       -0.1479615474        1.1137435510
 H          2.7459269654        1.1338581073       -0.0137562169
 H          1.2978775598        1.2979239244        0.9727167898
  17
        -16.82700013
 C         -1.8708115759        0.6900854193       -0.2613451371
 H         -2.2379532038        0.1625166225       -1.1381218974
 H         -1.2279330039        1.5026549093       -0.5861055451
 H         -2.7222825305        1.1224579527        0.2607544425
 C         -1.1096479128       -0.2761996609        0.6594384347
 H         -0.6784196872        0.2660368124        1.4994595706
 H         -1.8027969266       -1.0196738410        1.0557188417
 C         -0.0124434170       -1.0009716782       -0.1377362269
 H         -0.4823937521       -1.5209096340       -0.9757346164
 H          0.4419478742       -1.7603321313        0.5054259146
 C          1.0997431458       -0.1025541750       -0.6798649090
 H          0.6819780468        0.6376431864       -1.3636729691
 H          1.7835164738       -0.7281149151       -1.2596258260
 C          1.8903935331        0.6048523417        0.4144835459
 H          2.2731767836       -0.1159094366        1.1341719790
 H          2.7338879332        1.1403425778       -0.0160375860
 H          1.2702367209        1.3236914119        0.9436414652
  17
        -16.82699248
 C         -1.8532259363        0.6994420782        0.2640716705
 H         -2.2104856639        0.1823265918        1.1510746983
 H         -2.7096921793        1.1321098435       -0.2495663442
 H         -1.2007807579        1.5111421379        0.5714926679
 C         -1.1113043607       -0.2797940851       -0.6587303818
 H         -1.8153072877       -1.0193980473       -1.0429475249
 H         -0.6839173079        0.2530390499       -1.5067329322
 C         -0.0124179709       -1.0100306272        0.1310979200
 H          0.4406618718       -1.7642798107       -0.5190001595
 H         -0.4802561926       -1.5366212557        0.9661570197
 C          1.1002601665       -0.1153592847        0.6783618893
 H          1.7942406050       -0.7480386914        1.2379245160
 H          0.6854140128        0.6080780812        1.3816383000
 C          1.8738071404        0.6192775705       -0.4102225878
 H          2.2495778851       -0.0836316643       -1.1509275842
 H          1.2439182725        1.3473228126       -0.9147348141
 H          2.7209587413        1.1483342111        0.0210607065
  17
        -16.82699229
 C         -1.9107065423        0.6668200992       -0.2569900531
 H         -1.2899114584        1.4786840935       -0.6238254639
 H         -2.7500355393        1.1017595915        0.2823094654
 H         -2.2997795698        0.1126230854       -1.1075648437
 C         -1.1066751063       -0.2663525770        0.6615439532
 H         -0.6689273054        0.2998622742        1.4821415736
 H         -1.7745575378       -1.0173052684        1.0860621391
 C         -0.0121213851       -0.9800342246       -0.1492181498
 H         -0.4857036885       -1.4883869289       -0.9921758499
 H          0.4462166121       -1.7479325654        0.4807475062
 C          1.0973080963       -0.0725279918       -0.6819366401
 H          0.6714536207        0.7050433087       -1.3174937077
 H          1.7555521690       -0.6787641755       -1.3096740692
 C          1.9296100396        0.5711529197        0.4208998288
 H          2.7583092462        1.1294258588       -0.0093335421
 H          1.3317376907        1.2592068407        1.0128094098
 H          2.3364496182       -0.1896445772        1.0839361094
  17
        -16.82503881
 C         -1.7939527361        0.8381234653        0.2750614390
 H         -2.2382057262        1.0874681329       -0.6857318104
 H         -1.0394257849        1.5819756943        0.5106452778
 H         -2.5737901042        0.8875398110        1.0333584901
 C         -1.1783416067       -0.5686893621        0.2216001427
 H         -0.7938355046       -0.8455424135        1.2032515998
 H         -1.9575682929       -1.2831568655       -0.0459446748
 C         -0.0473687865       -0.6032217953       -0.8214585946
 H         -0.1729161167        0.2244558327       -1.5210271926
 H         -0.1171906486       -1.5284671739       -1.3995005794
 C          1.3582839511       -0.5440294582       -0.2195866793
 H          2.0831933611       -0.6833409275       -1.0258804639
 H          1.4828372261       -1.3748948068        0.4792259029
 C          1.6676686772        0.7650720085        0.4961752191
 H          2.7025267789        0.7739078583        0.8320843989
 H          1.5191913151        1.6099986440       -0.1730362811
 H          1.0302324389        0.8936239275        1.3670488062
  17
        -16.82487907
 C         -1.6433836012        0.7748154388        0.4784380752
 H         -2.6635132910        0.8278097650        0.8546744773
 H         -1.5003552962        1.5805648988       -0.2370735048
 H         -0.9673893754        0.9218976100        1.3151620018
 C         -1.3872545935       -0.5825546673       -0.1941776784
 H         -1.4805784463       -1.3857238283        0.5375429434
 H         -2.1282136772       -0.7454140616       -0.9781321725
 C          0.0187332427       -0.5994789911       -0.8167064691
 H          0.1048551843        0.2374230968       -1.5116070884
 H          0.1155944142       -1.5166900301       -1.4033491006
 C          1.1598084113       -0.5364595705        0.2099696435
 H          1.9188638340       -1.2788266972       -0.0464835130
 H          0.7773191897       -0.7988385068        1.1982818673
 C          1.8349870030        0.8298601501        0.2729213699
 H          1.1233847882        1.6093434854        0.5311971534
 H          2.6262228645        0.8271736455        1.0201530628
 H          2.2777017231        1.0776291435       -0.6898255836
