  17
        -16.82912238
 C         -2.5174183747        0.3554025291        0.0001573829
 H         -2.5219877843        0.9905475863       -0.8822200489
 H         -2.5215497992        0.9902416783        0.8827235142
 H         -3.4263446890       -0.2418334507        0.0003223932
 C         -1.2738799301       -0.5477881945       -0.0003925223
 H         -1.2828239491       -1.1876717030        0.8830064234
 H         -1.2828603962       -1.1867237351       -0.8844702711
 C         -0.0032676768        0.3180162845        0.0000720313
 H         -0.0113520193        0.9617620164        0.8822533817
 H         -0.0108840983        0.9617188833       -0.8821630777
 C          1.2705235997       -0.5232711444        0.0003968108
 H          1.2761178540       -1.1691221613       -0.8808335808
 H          1.2763406464       -1.1684914050        0.8821119906
 C          2.5235430040        0.3440602831       -0.0001959401
 H          2.5474083438        0.9802200585        0.8819277794
 H          3.4184812549       -0.2739289793       -0.0016576692
 H          2.5454056513        0.9817892869       -0.8814508464
  17
        -16.82826436
 C         -2.4159684066        0.2765608101       -0.1032083279
 H         -2.7876148099       -0.2943679854        0.7442494050
 H         -3.0955008190        0.1335711287       -0.9402715985
 H         -2.4152745643        1.3303727154        0.1644381899
 C         -0.9956190084       -0.1792767150       -0.4736873189
 H         -1.0074556150       -1.2368240527       -0.7417251198
 H         -0.6482604635        0.3900884651       -1.3352517290
 C         -0.0525002049        0.0391534276        0.7210624065
 H         -0.4724502523       -0.4731190341        1.5898179588
 H         -0.0109391413        1.1057304762        0.9521989435
 C          1.3645485527       -0.4818709161        0.4814670892
 H          1.3168775362       -1.5338672704        0.1903754607
 H          1.9196190486       -0.4250530412        1.4212453964
 C          2.1212041728        0.3036521533       -0.5834931890
 H          3.1453311792       -0.0548468137       -0.6613520001
 H          1.6504910873        0.1950633985       -1.5569904328
 H          2.1469968524        1.3611530716       -0.3289186854
  17
        -16.82796203
 C         -2.0925741438        0.3684753894       -0.5563017207
 H         -2.1083225083        1.3885379459       -0.1808763801
 H         -3.1200303358        0.0412872567       -0.7033659091
 H         -1.5942372202        0.3586947393       -1.5208702825
 C         -1.3717536101       -0.5521837114        0.4406333712
 H         -1.9360530557       -0.5854506439        1.3734966369
 H         -1.3115958558       -1.5640654826        0.0389264137
 C          0.0406230836       -0.0128865332        0.7212913080
 H          0.4652154043       -0.5621095785        1.5666261165
 H         -0.0308316033        1.0362949610        1.0150374637
 C          0.9930897411       -0.1462671155       -0.4644159539
 H          0.6389070467        0.4623043067       -1.2976317069
 H          1.0118076385       -1.1874294177       -0.7952317498
 C          2.4058719493        0.2926351644       -0.0977162857
 H          3.0715841723        0.1967478636       -0.9525654650
 H          2.4099854718        1.3316210961        0.2252419670
 H          2.7984293954       -0.3178873864        0.7129402244
  17
        -16.82700113
 C         -1.8802076106        0.6844173115        0.2611810543
 H         -1.2424212059        1.4966501675        0.5964897351
 H         -2.2523898141        0.1496653463        1.1314825282
 H         -2.7290833029        1.1177666825       -0.2643142228
 C         -1.1091025734       -0.2732078887       -0.6603936418
 H         -1.7964972637       -1.0180712720       -1.0639820701
 H         -0.6763406412        0.2755924689       -1.4953159278
 C         -0.0124022029       -0.9963204804        0.1389762734
 H          0.4431093984       -1.7566625099       -0.5022233521
 H         -0.4831418686       -1.5148677866        0.9773663083
 C          1.0990226528       -0.0964421310        0.6803757418
 H          1.7766600360       -0.7186015122        1.2708449070
 H          0.6790615801        0.6518445558        1.3538973941
 C          1.8999492883        0.5976418606       -0.4151059201
 H          2.7402318849        1.1373502304        0.0167264908
 H          2.2882658843       -0.1317749532       -1.1230913055
 H          1.2852028135        1.3110678646       -0.9578640754
  17
        -16.82699102
 C         -1.9133946159        0.6646160766       -0.2579288527
 H         -2.7518687961        1.1008652993        0.2817119292
 H         -2.3039844651        0.1069362393       -1.1055888209
 H         -1.2941891040        1.4757209198       -0.6292302644
 C         -1.1064630666       -0.2645377012        0.6621835395
 H         -0.6683719591        0.3048943032        1.4803872753
 H         -1.7726891259       -1.0152390616        1.0898238971
 C         -0.0118543649       -0.9787181136       -0.1480672733
 H         -0.4854635455       -1.4885851768       -0.9900502181
 H          0.4472410077       -1.7454637012        0.4827943508
 C          1.0969599652       -0.0713194378       -0.6821464286
 H          0.6702124598        0.7079989926       -1.3149684674
 H          1.7531443118       -0.6767700977       -1.3128220584
 C          1.9321855417        0.5692853057        0.4202886128
 H          2.3347935203       -0.1929138176        1.0843925793
 H          2.7640479269        1.1226975850       -0.0101328566
 H          1.3377128647        1.2612374784        1.0112560266
  17
        -16.82503895
 C         -1.7945505248        0.8378978194        0.2752280043
 H         -2.2370000919        1.0883527367       -0.6860123638
 H         -1.0405860002        1.5815667093        0.5130228999
 H         -2.5757911535        0.8864659359        1.0320821529
 C         -1.1786167947       -0.5687631132        0.2213692713
 H         -0.7944262967       -0.8462593116        1.2029800176
 H         -1.9577104285       -1.2830720325       -0.0470639683
 C         -0.0473852243       -0.6026604150       -0.8213954478
 H         -0.1725892456        0.2256292598       -1.5202801167
 H         -0.1174262153       -1.5273487025       -1.4002693155
 C          1.3580752908       -0.5443140772       -0.2189906719
 H          2.0830901234       -0.6849957194       -1.0249660535
 H          1.4816613031       -1.3747196415        0.4805522437
 C          1.6687366018        0.7650973412        0.4956539843
 H          1.0307313145        0.8954034428        1.3658046521
 H          2.7034416176        0.7729503242        0.8324487842
 H          1.5220133104        1.6095625714       -0.1746826989
  17
        -16.82487912
 C         -1.6440788959        0.7748179228        0.4782358590
 H         -1.5043010095        1.5800827936       -0.2384924483
 H         -0.9663128748        0.9238989374        1.3131137140
 H         -2.6634102977        0.8264173677        0.8569055008
 C         -1.3871863174       -0.5827948576       -0.1936147696
 H         -1.4795763157       -1.3856518960        0.5386157374
 H         -2.1283513813       -0.7466541331       -0.9771873238
 C          0.0185489304       -0.5990543825       -0.8167097591
 H          0.1042500343        0.2384021029       -1.5109329123
 H          0.1154548865       -1.5158091225       -1.4040520015
 C          1.1599100832       -0.5363689720        0.2096790770
 H          1.9186171960       -1.2790894105       -0.0470398915
 H          0.7775763947       -0.7988074826        1.1981177080
 C          1.8357132660        0.8296241505        0.2728701469
 H          1.1243365101        1.6092375665        0.5308212259
 H          2.6267248474        0.8266807946        1.0202386832
 H          2.2786860551        1.0771464402       -0.6897535076
