5
 energy: -4.175218216499 gnorm: 0.000066473696 xtb: 6.4.1 (afa7bdf)
C         4.10463471052182    3.41114131478869   -0.44866622952315
H         4.71798245124506    3.17507376848673    0.41400074092035
H         5.00719296963840    3.82323241440499    1.25690452646343
H         4.53926416878846    4.19795390090982   -1.06085086326964
H         3.09002569980627    3.68659860140978   -0.17038817459099
