10
Coordinates from ORCA-job calc_MEP E -16.102994755370
  C      -0.424402      0.005033     -0.253548
  C       0.945392     -0.261398     -0.608192
  Cl      1.214828     -0.710769     -2.594976
  H      -0.477912      0.237511      0.832681
  H      -1.076451     -0.853957     -0.411790
  H      -0.833042      0.873707     -0.769829
  H       1.373383     -1.164062     -0.190561
  H       1.619723      0.583937     -0.552499
  O      -0.696952      0.564049      2.256045
  H      -1.644567      0.725951      2.292669
10
Coordinates from ORCA-job calc_MEP E -16.123262593180
  C      -0.417912     -0.018744     -0.364745
  C       0.914577     -0.238609     -0.519585
  Cl      1.298400     -0.752889     -2.740129
  H      -0.511507      0.303466      1.127741
  H      -1.090762     -0.864265     -0.392471
  H      -0.842929      0.894453     -0.756918
  H       1.356214     -1.170653     -0.203997
  H       1.604274      0.589245     -0.568512
  O      -0.684677      0.543949      2.168392
  H      -1.625679      0.714047      2.250224
10
Coordinates from ORCA-job calc_MEP E -16.124562868600
  C      -0.472561     -0.024943     -0.473363
  C       0.865189     -0.222107     -0.501001
  Cl      1.430766     -0.783289     -2.696815
  H      -0.580429      0.320380      1.152968
  H      -1.130365     -0.880333     -0.531626
  H      -0.878692      0.879003     -0.904374
  H       1.298752     -1.143024     -0.145541
  H       1.549015      0.611188     -0.526718
  O      -0.591681      0.522364      2.176533
  H      -1.489995      0.720759      2.449937
10
Coordinates from ORCA-job calc_MEP E -16.106823261110
  C      -0.478832     -0.005856     -0.382058
  C       0.920691     -0.257955     -0.627162
  Cl      1.292076     -0.717034     -2.483014
  H      -0.575298      0.262064      0.858173
  H      -1.103745     -0.876005     -0.576689
  H      -0.856877      0.849837     -0.939394
  H       1.325906     -1.133914     -0.132106
  H       1.572930      0.601249     -0.511701
  O      -0.598608      0.537365      2.256464
  H      -1.498244      0.740249      2.537487
10
Coordinates from ORCA-job calc_MEP E -16.050315592780
  C      -0.464415     -0.022777     -0.456387
  C       0.988719     -0.296007     -0.758276
  Cl      1.170813     -0.642467     -2.209978
  H      -0.562106      0.218936      0.626278
  H      -1.087488     -0.891228     -0.649593
  H      -0.840877      0.830000     -1.013758
  H       1.343107     -1.125744     -0.149429
  H       1.587204      0.583278     -0.527123
  O      -0.614723      0.568659      2.429802
  H      -1.520235      0.777350      2.708464
