!NEB xtb2
*xyz -1 1
C   -0.70637444   0.17262756   0.33274278
C    0.66342006  -0.09380326  -0.02190078
Cl   0.93285628  -0.54317434  -2.00868497
H   -0.75988381   0.40510586   1.41897240
H   -1.35842321  -0.68636227   0.17450065
H   -1.11501376   1.04130171  -0.18353798
H    1.09141056  -0.99646708   0.39572988
H    1.33775113   0.75153234   0.03379212
O   -0.97892364   0.73164381   2.84233623
H   -1.92653917   0.89354567   2.87895966
*
%neb
product "struct2.xyz"
nimages 3
end
%pal
nprocs 1
end