  9
        -11.39338470
 C         -1.2722606638        0.2490185348        0.0151431720
 H         -2.1596789947       -0.3855158011       -0.0229422115
 H         -1.3270152978        0.9481747853       -0.8199402747
 H         -1.3209181424        0.8375950244        0.9317454369
 C          0.0087359978       -0.5587611226       -0.0342993628
 H          0.0539828331       -1.2742708603        0.7971308779
 H          0.0721237942       -1.1567803049       -0.9537827575
 O          1.1702913727        0.2385975323        0.0587873800
 H          1.1615484444        0.9344590918       -0.6371200894
  9
        -11.39135360
 C         -1.2761950553        0.2408678108       -0.0017264491
 H         -1.3515274155        0.8025882347        0.9299981731
 H         -2.1581862803       -0.3979894986       -0.0758615098
 H         -1.3191238532        0.9609287246       -0.8196388884
 C          0.0105398766       -0.5597974823       -0.0504228563
 H          0.0508366514       -1.2944865113        0.7651101129
 H          0.0828288444       -1.1366206179       -0.9823744146
 O          1.1855132112        0.2318380798        0.0423928445
 H          0.9589723115        1.1860222823        0.1312785134
  9
        -11.39032089
 C         -1.2816515912        0.2792493197        0.0018028217
 H         -1.3040726806        1.0026704390       -0.8136877835
 H         -1.3361500653        0.8450217897        0.9322822808
 H         -2.1779983444       -0.3396873756       -0.0705589646
 C         -0.0098110333       -0.5421517324       -0.0490348602
 H          0.0113141059       -1.2730687641        0.7710783894
 H          0.0433847721       -1.1146902343       -0.9853360700
 O          1.1457280574        0.2700447200        0.0452797527
 H          1.9664154575       -0.2739640947        0.0103090014
