5
 energy: -4.175218216499 gnorm: 0.000066473696 xtb: 6.4.1 (afa7bdf)
C         4.10463471051145    3.41114131451890   -0.44866622989815
H         4.71798245111195    3.17507376858185    0.41400074103815
H         5.00719296975349    3.82323241444156    1.25690452655272
H         4.53926416879656    4.19795390101031   -1.06085086320154
H         3.09002569982655    3.68659860144738   -0.17038817449118
