5
 energy: -4.175218216499 gnorm: 0.000066473696 xtb: 6.4.1 (afa7bdf)
C         4.10463471055122    3.41114131452441   -0.44866622979962
H         4.71798245107213    3.17507376829652    0.41400074086832
H         5.00719296960388    3.82323241465412    1.25690452640951
H         4.53926416879844    4.19795390103598   -1.06085086306133
H         3.09002569997434    3.68659860148897   -0.17038817441687
