  9
        -11.39433939
 C          1.2750510267        0.2515067351       -0.0157706904
 H          2.1344805433       -0.4130054054       -0.0067989486
 H          1.3403228291        0.9160456791        0.8448681953
 H          1.3033789476        0.8525765832       -0.9214782634
 C         -0.0145928025       -0.5610977513        0.0327515135
 H         -0.0683367533       -1.2379409346       -0.8229123445
 H         -0.0399620774       -1.1639644943        0.9531776896
 O         -1.1686729543        0.2414810065       -0.0563129669
 H         -1.1390745463        0.9023719936        0.6446974143
  9
        -11.39225781
 C          1.2714382754        0.2438132228        0.0004470004
 H          1.3393087539        0.7962600851       -0.9357304075
 H          2.1299648039       -0.4185341712        0.0722462701
 H          1.3094962270        0.9490001946        0.8295936709
 C         -0.0158909861       -0.5645643924        0.0486423556
 H         -0.0387243031       -1.2825452094       -0.7812987283
 H         -0.0687779813       -1.1291811047        0.9884319436
 O         -1.1790910186        0.2361664486       -0.0404166275
 H         -0.9165593434        1.1584408453       -0.1166602161
  9
        -11.39186741
 C          1.2592097691        0.2891409345       -0.0037035016
 H          1.2843181219        0.8461764399       -0.9361044016
 H          2.1430300376       -0.3386814220        0.0648082026
 H          1.2553737885        0.9970503003        0.8203223809
 C          0.0038417765       -0.5673693929        0.0492020210
 H          0.0076442252       -1.2870357285       -0.7829316939
 H         -0.0224994848       -1.1334359244        0.9921316468
 O         -1.1210781226        0.2821830019       -0.0434364989
 H         -1.9234821264       -0.2478366449       -0.0109146910
