4
 energy: -3.019359422297 gnorm: 0.000471435001 xtb: 6.4.1 (afa7bdf)
C        -2.99709192337896    1.91537607962171   -0.00000000208093
H        -2.47697630210003    2.09906925160570    0.95520503966758
H        -4.03635548330511    1.54768541421987    0.00000000718563
H        -2.47697629121589    2.09906925455272   -0.95520504477228
