  17
        -16.82912237
 C          2.5174582515        0.3553376356       -0.0000636232
 H          2.5223333446        0.9900802661        0.8825775738
 H          2.5213224327        0.9905215272       -0.8823863498
 H          3.4263769023       -0.2419124910       -0.0007478626
 C          1.2738654508       -0.5477865179        0.0003806707
 H          1.2829896242       -1.1879762551       -0.8827969817
 H          1.2826624289       -1.1865088316        0.8845920023
 C          0.0032907966        0.3181213435       -0.0002405300
 H          0.0113828298        0.9612840796       -0.8828071741
 H          0.0108173531        0.9624185061        0.8815482168
 C         -1.2705169593       -0.5231865213       -0.0003643742
 H         -1.2760432231       -1.1689088199        0.8809190621
 H         -1.2763907297       -1.1685500117       -0.8819480087
 C         -2.5236056853        0.3439537807        0.0002789222
 H         -2.5459002578        0.9820195389       -0.8806734389
 H         -3.4186008776       -0.2740699609       -0.0009462626
 H         -2.5468111859        0.9798726341        0.8827756937
  17
        -16.82826436
 C          2.4158716311        0.2769384679       -0.1030787210
 H          2.4142231031        1.3302244259        0.1666277983
 H          3.0950784484        0.1362819785       -0.9408107537
 H          2.7885833651       -0.2952690026        0.7430444544
 C          0.9957388787       -0.1794762511       -0.4736846268
 H          0.6482861567        0.3894875291       -1.3354809314
 H          1.0080561743       -1.2370888471       -0.7413880068
 C          0.0523782245        0.0387824498        0.7209205876
 H          0.0108437066        1.1053403178        0.9521837438
 H          0.4720409781       -0.4736443429        1.5897074109
 C         -1.3647066247       -0.4821516573        0.4813285329
 H         -1.9199064785       -0.4255734855        1.4210524300
 H         -1.3171143742       -1.5340684638        0.1899033579
 C         -2.1209386734        0.3040674608       -0.5833688927
 H         -2.1472522102        1.3614173524       -0.3281622144
 H         -1.6498632159        0.1961601027       -1.5567972142
 H         -3.1448974818       -0.0546718769       -0.6617809042
  17
        -16.82796203
 C          2.0915199346        0.3694893731       -0.5565595729
 H          3.1197766643        0.0444461722       -0.7027668224
 H          2.1047880028        1.3898322137       -0.1817889409
 H          1.5938586439        0.3579881133       -1.5214702176
 C          1.3722304874       -0.5520894534        0.4406554184
 H          1.3132799063       -1.5640612583        0.0390400907
 H          1.9367822705       -0.5845735346        1.3734106864
 C         -0.0407632440       -0.0146440291        0.7217109033
 H          0.0296640750        1.0343307523        1.0164659533
 H         -0.4647101725       -0.5651072182        1.5665700286
 C         -0.9931558675       -0.1478354197       -0.4640565633
 H         -1.0138373057       -1.1894290492       -0.7934296577
 H         -0.6376155500        0.4589040372       -1.2980137857
 C         -2.4050743086        0.2946162652       -0.0982354414
 H         -2.4072380499        1.3343011932        0.2225141337
 H         -3.0710229596        0.1981137267       -0.9528211009
 H         -2.7987511713       -0.3133816563        0.7137306582
  17
        -16.82700029
 C          1.8717794098        0.6895688266       -0.2611018915
 H          1.2292949614        1.5016733706       -0.5876378683
 H          2.2402260559        0.1611300699       -1.1367734824
 H          2.7224042192        1.1225726694        0.2617486908
 C          1.1094286987       -0.2758775523        0.6595715414
 H          1.8019863228       -1.0194522337        1.0566914483
 H          0.6778534255        0.2669476364        1.4990345136
 C          0.0124899104       -1.0005164257       -0.1380910885
 H         -0.4419505361       -1.7601838985        0.5046757417
 H          0.4826885037       -1.5200631874       -0.9761960165
 C         -1.0997196309       -0.1019991336       -0.6800063017
 H         -1.7830139041       -0.7272762306       -1.2606373987
 H         -0.6818784713        0.6389464495       -1.3629662168
 C         -1.8912160608        0.6041289518        0.4145752459
 H         -2.7351278236        1.1391295330       -0.0158023305
 H         -2.2735730726       -0.1173833491        1.1337934696
 H         -1.2718279386        1.3232613313        0.9442793025
  17
        -16.82699559
 C          1.8587160815        0.6966039737        0.2635058184
 H          2.2197822926        0.1757920262        1.1468545661
 H          1.2090473985        1.5080808218        0.5771696134
 H          2.7131442112        1.1297890264       -0.2529473974
 C          1.1109847944       -0.2785022179       -0.6589806270
 H          0.6827108958        0.2574868592       -1.5044767900
 H          1.8116675508       -1.0192467266       -1.0468067699
 C          0.0124693469       -1.0071655775        0.1327826988
 H          0.4809735705       -1.5317211820        0.9687210550
 H         -0.4407144634       -1.7630310623       -0.5153423857
 C         -1.1005090386       -0.1120260957        0.6787327534
 H         -0.6854346027        0.6159545034        1.3771310737
 H         -1.7915123744       -0.7434015823        1.2433267633
 C         -1.8788299633        0.6151892110       -0.4113841363
 H         -1.2516145233        1.3404026308       -0.9231253111
 H         -2.2572146587       -0.0927108399       -1.1460228798
 H         -2.7245745512        1.1462719458        0.0200275313
  17
        -16.82699363
 C          1.8554216220        0.6988114656       -0.2624156606
 H          2.7109915436        1.1307769241        0.2533217983
 H          1.2041225149        1.5109837058       -0.5709864874
 H          2.2143665019        0.1818150143       -1.1488278067
 C          1.1108109855       -0.2803084648        0.6583350380
 H          1.8134042351       -1.0209446888        1.0431247905
 H          0.6825443456        0.2523189080        1.5060172718
 C          0.0125112916       -1.0087378251       -0.1339765463
 H         -0.4404742795       -1.7651313806        0.5136954855
 H          0.4808355099       -1.5325938510       -0.9704802255
 C         -1.1004518277       -0.1129210111       -0.6787852463
 H         -1.7934565024       -0.7440857343       -1.2412656497
 H         -0.6857188834        0.6135845654       -1.3789615587
 C         -1.8754426322        0.6168990512        0.4120286590
 H         -2.7240707133        1.1449627341       -0.0175512241
 H         -2.2492267713       -0.0889690420        1.1509270135
 H         -1.2472738594        1.3451925929        0.9183514353
  17
        -16.82697869
 C          1.9327379215        0.6532033956        0.2549079137
 H          1.3244396807        1.4603696025        0.6518258654
 H          2.7618608260        1.0947609348       -0.2946671346
 H          2.3382383350        0.0808399847        1.0855625899
 C          1.1037303720       -0.2586144404       -0.6628864144
 H          0.6608586768        0.3232944106       -1.4695956178
 H          1.7565784585       -1.0116472900       -1.1066099927
 C          0.0122766299       -0.9685735547        0.1553266299
 H          0.4887682622       -1.4699716880        1.0007223340
 H         -0.4469938859       -1.7417161481       -0.4674415564
 C         -1.0971464948       -0.0578999125        0.6826006020
 H         -0.6692684334        0.7379077463        1.2937860043
 H         -1.7423442303       -0.6541273319        1.3330322988
 C         -1.9492267663        0.5530540570       -0.4238393905
 H         -2.7788946528        1.1118346588        0.0038561710
 H         -1.3659512119        1.2341963643       -1.0379627147
 H         -2.3555545844       -0.2263299975       -1.0653123855
  17
        -16.82503862
 C          1.7938987934        0.8382774576       -0.2746356259
 H          2.5721955327        0.8889105105       -1.0344240543
 H          2.2401521179        1.0857565668        0.6856180045
 H          1.0391263402        1.5828208742       -0.5071912142
 C          1.1780720421       -0.5684738299       -0.2223000176
 H          0.7930226141       -0.8443391491       -1.2039059569
 H          1.9573688194       -1.2832116775        0.0441186717
 C          0.0474832236       -0.6037917570        0.8211396809
 H          0.1735370060        0.2232647985        1.5213104171
 H          0.1174995103       -1.5294477681        1.3984676395
 C         -1.3583802930       -0.5439613317        0.2198994340
 H         -2.0830923310       -0.6827854581        1.0264659533
 H         -1.4836356319       -1.3748607231       -0.4787647295
 C         -1.6673922766        0.7651669509       -0.4959591397
 H         -1.0300066228        0.8933027651       -1.3668619811
 H         -2.7024003029        0.7744351548       -0.8317014783
 H         -1.5184702681        1.6101671325        0.1731396193
  17
        -16.82487915
 C          1.6434779261        0.7743129980        0.4791926666
 H          2.6631296767        0.8264274539        0.8568707569
 H          0.9664339800        0.9212163293        1.3150846468
 H          1.5019208000        1.5806846726       -0.2359486621
 C          1.3874121188       -0.5824176560       -0.1947456998
 H          2.1280972682       -0.7440494919       -0.9791846487
 H          1.4812837961       -1.3864149185        0.5359876230
 C         -0.0187293402       -0.5989508334       -0.8169735644
 H         -0.1158591161       -1.5159602473       -1.4038832554
 H         -0.1050755083        0.2381943577       -1.5115467924
 C         -1.1593428801       -0.5361967894        0.2102695685
 H         -0.7760918533       -0.7975075622        1.1985759687
 H         -1.9178375299       -1.2794849833       -0.0452108227
 C         -1.8356748506        0.8294844178        0.2726632399
 H         -2.6267815379        0.8266219774        1.0200196060
 H         -1.1247389378        1.6097629769        0.5303402847
 H         -2.2787714050        1.0762647713       -0.6901026203
