  9
        -11.39433939
 C         -1.2750113558        0.2515149064        0.0157720661
 H         -1.3032194303        0.8527422090        0.9213657165
 H         -2.1344558478       -0.4129697468        0.0070344378
 H         -1.3403866323        0.9159188833       -0.8449599624
 C          0.0146018559       -0.5611492315       -0.0327526408
 H          0.0684104412       -1.2379707407        0.8229220598
 H          0.0400086939       -1.1640141166       -0.9531754690
 O          1.1686333422        0.2415044903        0.0563041983
 H          1.1388819937        0.9025202566       -0.6446042924
  9
        -11.39225781
 C         -1.2714396903        0.2438057419       -0.0004451593
 H         -1.3394114530        0.7961096226        0.9358068665
 H         -2.1299586364       -0.4185298761       -0.0724428936
 H         -1.3094071071        0.9491194366       -0.8294905849
 C          0.0158942669       -0.5645645492       -0.0486366543
 H          0.0387352221       -1.2825390801        0.7813094854
 H          0.0687803013       -1.1291879957       -0.9884222279
 O          1.1790896296        0.2361736951        0.0404095637
 H          0.9165533300        1.1584445181        0.1166790709
  9
        -11.39186742
 C         -1.2591068868        0.2891807302        0.0037122548
 H         -2.1430020357       -0.3385364838       -0.0660029696
 H         -1.2546238130        0.9980075865       -0.8195574084
 H         -1.2846939519        0.8453036843        0.9366022622
 C         -0.0037628014       -0.5674496183       -0.0492002777
 H         -0.0074563048       -1.2872712859        0.7828435808
 H          0.0225406373       -1.1334599166       -0.9922932638
 O          1.1209001713        0.2821929867        0.0434280189
 H          1.9235085348       -0.2474832673        0.0111058817
  9
        -11.39033585
 C         -1.2707769772        0.2776259379        0.0171422307
 H         -1.2754441048        0.8731399990        0.9256222722
 H         -2.1458967675       -0.3662869991        0.0059129048
 H         -1.3106288516        0.9502830957       -0.8361654721
 C         -0.0011452111       -0.5643985157       -0.0342634492
 H          0.0133074230       -1.2623410408        0.8142236121
 H          0.0146558015       -1.1521636947       -0.9581004915
 O          1.1409363499        0.2706582973        0.0573968871
 H          1.7501027069        0.0783678175       -0.6585796402
