5
 energy: -4.175141607542 gnorm: 0.000194387217 xtb: 6.4.1 (afa7bdf)
C         4.19249478034365    3.93868816216065   -0.00201707198199
H         4.85422023943946    2.07000806024283   -0.00019814206812
H         4.63700822732184    4.27252261308845    0.91268706339331
H         4.63518861633523    4.26943387896272   -0.91876638874341
H         3.14018813655982    3.74334728554535   -0.00070546059979
