5
 energy: -4.175218372002 gnorm: 0.000068506555 xtb: 6.4.1 (afa7bdf)
C         4.54713961600829    3.65279428131414    0.00836913833255
H         4.50820698563112    2.58125307017229   -0.02097327642833
H         4.50919788902372    4.21672286327450    0.92002821639770
H         4.51340515504725    4.19033709049319   -0.92584999585473
H         3.38115035428963    3.65289269474588    0.00942591755281
