5
 energy: -4.175218372002 gnorm: 0.000068506555 xtb: 6.4.1 (afa7bdf)
C         4.54713961647161    3.65279428078776    0.00836913916639
H         4.50820698659838    2.58125306944353   -0.02097327634755
H         4.50919789004101    4.21672286362621    0.92002821675413
H         4.51340515216025    4.19033708964055   -0.92584999396248
H         3.38115035472873    3.65289269650194    0.00942591438952
