5
 energy: -4.175218372002 gnorm: 0.000068506555 xtb: 6.4.1 (afa7bdf)
C         4.54713961626666    3.65279428116781    0.00836913855314
H         4.50820698610849    2.58125306957722   -0.02097327598924
H         4.50919788969850    4.21672286331168    0.92002821662918
H         4.51340515352008    4.19033709038584   -0.92584999496905
H         3.38115035440627    3.65289269555745    0.00942591577597
