5
 energy: -4.175128429198 gnorm: 0.000147967901 xtb: 6.4.1 (afa7bdf)
C         4.29014791998072    3.66139118593290   -0.00630987903194
H         4.65507515302796    2.64597166100199    0.00694292061586
H         4.65600409072768    4.15992592449427    0.87802482709100
H         4.64966676088877    4.16697539006449   -0.88537520350912
H         3.20820607537487    3.65973583850634   -0.00228266516580
