23
 energy: -34.175143565141 gnorm: 0.000134190627 xtb: 6.4.1 (afa7bdf)
C        -3.30650296309422   -1.91929205302768   -0.32186698807835
C        -1.94561877165378   -1.88804542359274   -0.58100620309383
C        -1.24281641104785   -0.69708725453306   -0.49026226989260
C        -1.89315758749616    0.47612360052844   -0.13902493978419
C        -3.25098665078430    0.41099356668008    0.10438752335007
C        -3.98008238539234   -0.75949680055921    0.03056643314493
H        -3.85345609309794   -2.84706189747252   -0.38839063412757
H        -1.42942603716418   -2.79678535638249   -0.85032152926885
H        -0.18228298323575   -0.67294244955852   -0.68823273156514
H        -1.34518124033051    1.40127383152247   -0.06032856231928
H        -5.03731189042304   -0.78483467763731    0.24071128749821
I        -4.29672341425786    2.24979265640415    0.60058893440231
C        -4.59464407591550    2.80176220526054   -1.47964546729440
C        -3.66758486006390    3.63239649541638   -2.07766840946277
C        -5.69163195658939    2.28688655458137   -2.14205821528196
C        -3.84873891535812    3.94488972228444   -3.41656129630361
H        -2.82860637250871    4.03357703489121   -1.53202341765544
C        -5.84962370637288    2.61316224081528   -3.48050140637090
H        -6.40916003152436    1.65308074656702   -1.64618180292314
C        -4.93309599725833    3.43720994557315   -4.11416280615275
H        -3.13719895406432    4.59012111215989   -3.90821914128008
H        -6.69657262034154    2.22124086182179   -4.02222529720943
H        -5.06729608202506    3.68913533825522   -5.15497306032965
