  9
        -11.39338459
 C         -1.2722610116        0.2490180451        0.0151667581
 H         -1.3272317445        0.9479294977       -0.8200878289
 H         -1.3207575595        0.8377432104        0.9316457849
 H         -2.1596248778       -0.3856097230       -0.0226462358
 C          0.0087190777       -0.5587726281       -0.0343047571
 H          0.0539884804       -1.2742317139        0.7971762399
 H          0.0721474399       -1.1568291231       -0.9537498968
 O          1.1703709249        0.2385366114        0.0586864316
 H          1.1604638661        0.9357697903       -0.6358614173
  9
        -11.39135333
 C         -1.2761900470        0.2408972672       -0.0015716934
 H         -1.3513048000        0.8028618369        0.9300225901
 H         -2.1582096640       -0.3979609783       -0.0753595324
 H         -1.3192823845        0.9607501115       -0.8196596069
 C          0.0105196658       -0.5598097501       -0.0503006049
 H          0.0508623687       -1.2943647328        0.7653504677
 H          0.0827043345       -1.1367925221       -0.9821616571
 O          1.1855207005        0.2317947040        0.0424195283
 H          0.9590926848        1.1864326117        0.1265950926
  9
        -11.39032232
 C         -1.2816739598        0.2792821139        0.0018267100
 H         -1.3355251623        0.8459724524        0.9317763076
 H         -2.1780529697       -0.3397269329       -0.0692627125
 H         -1.3046930375        1.0019119834       -0.8143340273
 C         -0.0098375394       -0.5421298159       -0.0490386566
 H          0.0112707124       -1.2729059189        0.7712240889
 H          0.0432501530       -1.1148946207       -0.9852070993
 O          1.1457846324        0.2700112101        0.0451792577
 H          1.9663279089       -0.2741952476        0.0112461208
