5
 energy: -4.175218216499 gnorm: 0.000066473696 xtb: 6.4.1 (afa7bdf)
C         4.29203295991458    3.65871075606657   -0.00150663558340
H         4.65236662106363    2.63813938839976   -0.00116405185365
H         4.65323102544891    4.17082492930968    0.88058108124383
H         4.65168169489799    4.16756606697042   -0.88636160993911
H         3.20978769867490    3.65875885925357   -0.00054878386767
