5
 energy: -4.175218372002 gnorm: 0.000068506555 xtb: 6.4.1 (afa7bdf)
C         4.29153210815540    3.65872443337936   -0.00166760380182
H         4.65268308279810    2.63856926825568   -0.00089371549548
H         4.65361762760670    4.17042903678092    0.88049057423476
H         4.65190158114939    4.16751247596427   -0.88632035808182
H         3.20936560029042    3.65876478561978   -0.00060889685563
