10
energy: -16.134439224605 xtb: 6.4.1 (afa7bdf)
C        -0.72959462141566    0.13991642552076    0.16632344378627
C         0.57939274521866   -0.05793802128788    0.09785922799696
Cl        1.40044441562168   -0.71255566270837   -2.52942513798728
H        -0.70881557808752    0.51994514869685    2.02887189495508
H        -1.42151681685274   -0.67880766801543    0.30177583724584
H        -1.17197404759660    1.09811000701534   -0.06545486215386
H         1.01705146193916   -1.02661892009127    0.25771241133616
H         1.26556318798856    0.74343185018655   -0.10791963522901
O        -1.05460997693572    0.75626610386872    2.91844609041651
H        -1.99566076987851    0.89420073681324    2.79472072963408
